<?xml version="1.0" encoding="UTF-8"?>

<!-- generated on 2025-04-15 12:44:12 by Eclipse SUMO duarouter Version 1.22.0
<duarouterConfiguration xmlns:xsi="http://www.w3.org/2001/XMLSchema-instance" xsi:noNamespaceSchemaLocation="http://sumo.dlr.de/xsd/duarouterConfiguration.xsd">

    <input>
        <net-file value="memwork.net.xml"/>
        <route-files value="memwork.trips.xml"/>
    </input>

    <output>
        <output-file value="memwork.rou.xml"/>
    </output>

    <report>
        <ignore-errors value="true"/>
    </report>

</duarouterConfiguration>
-->

<routes xmlns:xsi="http://www.w3.org/2001/XMLSchema-instance" xsi:noNamespaceSchemaLocation="http://sumo.dlr.de/xsd/routes_file.xsd">
    <vehicle id="0" depart="0.00">
        <route edges="15425701#12 15403853#15 15403853#16 -423464385#3 -423464385#2 -423464385#1 -423464385#0 -423464387#1 -423464387#0 -423464392#2 -423464392#1 -423464392#0 -423464393#1 -423464393#0 -598235000#8 -598235000#7 -598235000#6 -598235000#5 -598235000#4 -598235000#3 -598235000#2 -598235000#1 -598235000#0 -1099441034#16 -1099441034#15 -1099441034#14 -1099441034#13 -1099441034#12 -1099441034#11 -1099441034#10 -1099441034#9 -1099441034#8 -1099441034#7 -1099441034#6 -1099441034#5 -1099441034#3 -1099441034#2 -1099441034#1 -1099441034#0 -274631977#5 -274631977#4 -274631977#3 -274631977#2 -274631977#1 -274631977#0 -423439069#1 15433756#0 15433756#2 15433756#3 15433756#4 15433756#5 15433756#6 15433756#7 15433756#8 15433756#9 -556850118#1 -128542148#2"/>
    </vehicle>
    <vehicle id="1" depart="1.00">
        <route edges="-252392620#5 -252392620#4 -252392620#2 -252392620#1 252392620#1 252392620#2 252392620#4 252392620#5 252392620#7 252392620#9 252392620#10 252392620#11 252392620#12 252392620#14 252392620#16 252392620#18 252392620#20 252392620#21 252392620#22 1099441034#3 1099441034#5 1099441034#6 1099441034#7 1099441034#8 1099441034#9 1099441034#10 1099441034#11 1099441034#12 1099441034#13 1099441034#14 1099441034#15 1099441034#16 692519745#0 692519745#1 692519745#2 692519745#3 692519745#4 692519745#5 692519744#0 692519744#1 692519744#3 692519744#4 103706237#0 103706237#1 -15450760#6 -15450760#5 -15450760#4"/>
    </vehicle>
    <vehicle id="2" depart="2.00">
        <route edges="15452265#24 15403853#6 15403853#7 -597602577#1 -597602577#0 -597602578#1 -597602578#0 265141712#0 265141712#1 265141712#2 265141712#3 265141712#4 265141712#5 265141712#6 265141712#7 265141712#8 15437786#15"/>
    </vehicle>
    <vehicle id="3" depart="3.00">
        <route edges="423439077 868942698 423439084#1 423439084#2 423439084#3 423439084#4 423439069#0 423439069#2 274631977#1 274631977#2 274631977#3 274631977#4 274631977#5 1099441034#0 1099441034#1 1099441034#2 1099441034#3 1099441034#5 1099441034#6 1099441034#7 1099441034#8 1099441034#9 1099441034#10 1099441034#11 1099441034#12 1099441034#13 1099441034#14 1099441034#15 1099441034#16 598235000#0 598235000#1 598235000#2 598235000#3 598235000#4 598235000#5 598235000#6 598235000#7 598235000#8 144188071#2 144188071#4 144188071#6 144188071#7 -15399936#7"/>
    </vehicle>
    <vehicle id="4" depart="4.00">
        <route edges="1068356826 103239383#0 103239383#1 895165768#0 964928449 964928447 287332857#2 272559856#1 272559855 272559854 1309111500 1309111499 1037974806 272559853#1 272559853#2 272559853#3 -258025173#16 -258025173#15 -258025173#14 -258025173#13 -258025173#12 -258025173#11 -258025173#10 -258025173#9 -258025173#8 -258025173#6 -258025173#5 -258025173#4 -258025173#3 -252392620#10 -252392620#9 -252392620#7 -252392620#5 -252392620#4 -252392620#2 -252392620#1 -150432589"/>
    </vehicle>
    <vehicle id="5" depart="5.00">
        <route edges="-15449637#2 15371859#7 15371859#8 15371859#10 15371859#11 -1099441034#1 -1099441034#0 -274631977#5 -274631977#4 -274631977#3 -274631977#2 -274631977#1 -274631977#0 -423439069#1 15433756#0 15433756#2 15433756#3 15433756#4 15433756#5 15433756#6 15433756#7 15433756#8 15433756#9 15433756#11 15433756#12 15433756#13 255726877 98244420#0-AddedOnRampEdge 98244420#0 98244420#1-AddedOnRampEdge 98244420#1 157351494 1351173220-AddedOnRampEdge 1351173220 15302507#0 15302507#1 157351487#2-AddedOnRampEdge 157351487#2 157351492#0 157351492#1 1351173222 15311724#0 15311724#1"/>
    </vehicle>
    <vehicle id="6" depart="6.00">
        <route edges="-1354012101#0 1354012101#0 1354012101#1 1099441034#12 1099441034#13 1099441034#14 1099441034#15 1099441034#16 598235000#0 598235000#1 -15447692#12 -15447692#10"/>
    </vehicle>
    <vehicle id="7" depart="7.00">
        <route edges="15425704#7 256260034#7 256260034#8 256260034#9 -1099441034#13 -1099441034#12 -1099441034#11 -1099441034#10 -1099441034#9 -1099441034#8 -1099441034#7 -1099441034#6 -1099441034#5 -1099441034#3 -252392620#22 -252392620#21 -252392620#20 -252392620#18 -252392620#16 -252392620#14 -15412566#2 15371859#2 15371859#3"/>
    </vehicle>
    <vehicle id="8" depart="8.00">
        <route edges="-15449639#0 15449639#0 15449639#1 15366832#9 15366832#10 274631977#1 274631977#2 274631977#3 274631977#4 274631977#5 1099441034#0 1099441034#1 1099441034#2 1099441034#3 1099441034#5 1099441034#6 1099441034#7 1099441034#8 1099441034#9 1099441034#10 1099441034#11 1099441034#12 1099441034#13 1099441034#14 1099441034#15 1099441034#16 598235000#0 598235000#1 -15447692#12 -15447692#10 -15447692#9 -15447692#8 -15447692#7 15407823#6"/>
    </vehicle>
    <vehicle id="9" depart="9.00">
        <route edges="258025173#3 258025173#4 258025173#5 258025173#6 258025173#8 258025173#9 258025173#10 258025173#11 258025173#12 258025173#13 258025173#14 258025173#15 258025173#16 597602578#0 597602578#1 138482060#0 138482060#1 138482060#2 138482060#3 138482060#4 597528804#0 597528804#1 1068356826 103239383#0 103239383#1 895165768#0 964928449 964928446 103239373 757330632 363761559#0 1351172560#1 150433213#0 150433213#1 -1064338893#4 -1064338893#3"/>
    </vehicle>
    <vehicle id="10" depart="10.00">
        <route edges="258025173#13 15447692#2 15447692#3 15447692#4 15447692#5 15447692#6 15447692#7 15447692#8 15447692#9 15447692#10 15447692#12 15447692#13 15447692#14 15447692#15 15447692#16 15447692#17 15447692#18 15447692#19"/>
    </vehicle>
    <vehicle id="11" depart="11.00">
        <route edges="-423439084#3 -423439084#2 -423439084#1 423439084#1 423439084#2 423439084#3 423439084#4 423439069#0 423439069#2 274631977#1 274631977#2 274631977#3 274631977#4 274631977#5 1099441034#0 1099441034#1 1099441034#2 1099441034#3 1099441034#5 1099441034#6 1099441034#7 1099441034#8 1099441034#9 1099441034#10 1099441034#11 1099441034#12 1099441034#13 1099441034#14 1099441034#15 1099441034#16 598235000#0 598235000#1 -15447692#12 -15447692#10 -15425701#3 -15425701#2"/>
    </vehicle>
    <vehicle id="12" depart="12.00">
        <route edges="692519743#3 -692519745#5 -692519745#4 -692519745#3 -692519745#2 -692519745#1 -692519745#0 598235000#0 598235000#1 598235000#2 598235000#3 598235000#4 598235000#5 598235000#6 598235000#7 598235000#8 423464393#0 423464393#1 423464392#0 423464392#1 423464392#2 423464387#0 423464387#1 423464385#0 423464385#1 423464385#2 423464385#3 -423464385#3 -423464385#2 -423464385#1"/>
    </vehicle>
    <vehicle id="13" depart="13.00">
        <route edges="-15403853#14 -15403853#13 15403853#13 15403853#14 15403853#15 15403853#16 15403853#18 15403853#19 15403853#20 15403853#21 -15403853#21 -15403853#20"/>
    </vehicle>
    <vehicle id="14" depart="14.00">
        <route edges="274631977#4 274631977#5 1099441034#0 1099441034#1 1099441034#2 1099441034#3 1099441034#5 1099441034#6 1099441034#7 1099441034#8 1099441034#9 1099441034#10 1099441034#11 1099441034#12 1099441034#13 1099441034#14 1099441034#15 1099441034#16 598235000#0 598235000#1 598235000#2 598235000#3 598235000#4 598235000#5 598235000#6 598235000#7 598235000#8 423464393#0 423464393#1 423464392#0 423464392#1 423464392#2 423464387#0 423464387#1 423464385#0 423464385#1 423464385#2 423464385#3 -15403853#16 -15403853#15 -15403853#14 -15403853#13 -15403853#12 -15403853#11 -15403853#10 15412567#20"/>
    </vehicle>
    <vehicle id="15" depart="15.00">
        <route edges="258025173#14 -15421180#0 15452265#16 15452265#17 15452265#18"/>
    </vehicle>
    <vehicle id="16" depart="16.00">
        <route edges="15366145#1 15366145#2 15366145#3 15366145#4 15366145#5 15366145#6 15366145#7 15366145#9 15366145#10 15366145#11 692519745#0 692519745#1 692519745#2 692519745#3 692519745#4 692519745#5 692519744#0 692519744#1 692519744#3 692519744#4 102926379#0 102926379#1 102926379#2 799552432 819581715#0 819581715#2"/>
    </vehicle>
    <vehicle id="17" depart="17.00">
        <route edges="-799552428#3 -799552428#2 -799552428#1 103705921#4 103705921#6 103705921#7 103705921#8 103705921#9 1372004201#0 1372004201#1 1372004201#2 1372004201#3 -423464387#1 -423464387#0 -423464392#2 -423464392#1 -423464392#0 -423464393#1 -423464393#0 -598235000#8 -598235000#7 -598235000#6 -598235000#5 -598235000#4 -598235000#3 -598235000#2 -598235000#1 -598235000#0 -1099441034#16 -1099441034#15 -1099441034#14 -1099441034#13 -1099441034#12 -1099441034#11 -1099441034#10 -1099441034#9 -1099441034#8 -1099441034#7 -1099441034#6 -1099441034#5 -1099441034#3 -1099441034#2 -1099441034#1 -1099441034#0 -274631977#5 -274631977#4 -274631977#3 -274631977#2 -274631977#1 -274631977#0 -423439069#1 505947963#0 -505947964#1 309161811#0 309161811#2 1124432700#0 1124432700#1 1124432700#2 1124432700#3 1124432699 15377451#0 15377451#1"/>
    </vehicle>
    <vehicle id="18" depart="18.00">
        <route edges="265141712#8 265141712#9 265141712#10 265141712#11 265141712#12 -598235000#8 -598235000#7 -598235000#6 -598235000#5 -598235000#4 15421180#13 15421180#14 15421180#15"/>
    </vehicle>
    <vehicle id="19" depart="19.00">
        <route edges="317789570#12 317789570#13 317789570#14 317789570#15 317789570#16 317789570#18 317789570#20 -692519745#3 -692519745#2 -692519745#1 -692519745#0 598235000#0 598235000#1 598235000#2 598235000#3 598235000#4 598235000#5 598235000#6 598235000#7 598235000#8 423464393#0 423464393#1 423464392#0 423464392#1 423464392#2 423464387#0 423464387#1 1372004200#0 1372004200#1 1372004200#2 1372004200#4 1372004200#5 1372004200#7 1372004200#8 1372004200#9 1372004200#10 597602576#1 597602576#2 597602576#3 597602577#0 597602577#1 15403853#8"/>
    </vehicle>
    <vehicle id="20" depart="20.00">
        <route edges="15447692#5 -15412567#8 -15412567#7 -15412567#6 -256260034#3 -15358859#10 -15358859#9 -15358859#8 -15358859#7 -15358859#6"/>
    </vehicle>
    <vehicle id="21" depart="21.00">
        <route edges="-15450760#2 -15450760#1 -15450760#0 -195573251#5 15431398#0 15431398#1 15431398#2 15431398#3 15431398#4 -103706237#0 692519743#1 692519743#3 -692519745#5 -692519745#4 -692519745#3 -692519745#2 -692519745#1 -692519745#0 -15366145#11 -15366145#10 -15366145#9 -15366145#7 -15366145#6 -15366145#5 -15366145#4 -15366145#3 -15366145#2 -258025173#10 -258025173#9 -258025173#8"/>
    </vehicle>
    <vehicle id="22" depart="22.00">
        <route edges="-15382922#2 -15382922#1 -15382922#0 252392620#1 252392620#2 252392620#4 252392620#5 252392620#7 252392620#9 252392620#10 258025173#3 258025173#4 258025173#5 258025173#6 258025173#8 258025173#9 258025173#10 258025173#11 258025173#12 258025173#13 258025173#14 -15421180#0 -15452265#15"/>
    </vehicle>
    <vehicle id="23" depart="23.00">
        <route edges="-15403853#6 -15452265#24 -15452265#23 -15452265#22 -15452265#21 272559853#1 272559853#2 272559853#3 265141712#0 265141712#1 265141712#2 265141712#3 265141712#4 265141712#5 265141712#6 265141712#7 265141712#8 265141712#9 265141712#10 265141712#11 265141712#12 -598235000#8 -598235000#7 -598235000#6 -598235000#5 -598235000#4 -598235000#3 -598235000#2 -598235000#1 -598235000#0 -1099441034#16 -1099441034#15 -1099441034#14 -256260034#9 -256260034#8"/>
    </vehicle>
    <vehicle id="24" depart="24.00">
        <route edges="15425626#0 15425626#1 15418935#2 15418935#3 256260034#0 258025173#10 15366145#2 15366145#3 15366145#4 15366145#5 15366145#6 15366145#7 15366145#9 15366145#10 15366145#11 692519745#0 692519745#1 692519745#2 692519745#3 -692519745#3 -692519745#2 -692519745#1"/>
    </vehicle>
    <vehicle id="25" depart="25.00">
        <route edges="-598235000#8 -598235000#7 -598235000#6 -598235000#5 -598235000#4 -598235000#3 -598235000#2 -15447692#12 -15447692#10 -15447692#9"/>
    </vehicle>
    <vehicle id="26" depart="26.00">
        <route edges="-252392620#1 252392620#1 252392620#2 252392620#4 252392620#5 252392620#7 252392620#9 252392620#10 252392620#11 252392620#12 252392620#14 252392620#16 252392620#18 252392620#20 252392620#21 252392620#22 1099441034#3 1099441034#5 1099441034#6 1099441034#7 1099441034#8 1099441034#9 1099441034#10 1099441034#11 1099441034#12 1099441034#13 1099441034#14 1099441034#15 1099441034#16 598235000#0 598235000#1 598235000#2 598235000#3"/>
    </vehicle>
    <vehicle id="27" depart="27.00">
        <route edges="15425704#5 15425704#6 15425704#7 15425704#8 -15366145#6 -15366145#5 -15366145#4 15412567#8 15412567#9"/>
    </vehicle>
    <vehicle id="28" depart="28.00">
        <route edges="-15431398#3 -15431398#2 -15431398#1 -15431398#0 15431398#0 15431398#1 15431398#2 15431398#3 15431398#4 -103706237#0 692519743#1 692519743#3 -692519745#5 -692519745#4 -692519745#3 -692519745#2 -692519745#1 -692519745#0 -15366145#11 -15366145#10 -15366145#9 -15366145#7 -15366145#6 -15366145#5 -15366145#4 -15366145#3 -15366145#2 258025173#11 258025173#12 258025173#13 258025173#14 -15421180#0 15452265#16 15452265#17"/>
    </vehicle>
    <vehicle id="29" depart="29.00">
        <route edges="-15425704#4 -15425704#3 -15425704#1 -15425704#0 252392620#20 252392620#21 252392620#22 -1099441034#2 -1099441034#1 -1099441034#0 -274631977#5 -274631977#4 -274631977#3 -274631977#2 -274631977#1 -274631977#0 -423439069#1 15433756#0 15433756#2 15433756#3 15433756#4 15433756#5 15433756#6 15433756#7 15433756#8 15433756#9 15433756#11 15433756#12 15433756#13 255726877 98244420#0-AddedOnRampEdge 98244420#0 98244420#1-AddedOnRampEdge 98244420#1 54030217#1 54030217#2-AddedOnRampEdge 54030217#2 650908439 103239369 650908431#0 650908431#1 650908435#0 650908435#1 981147945#0 954659946#1 954659946#3 -954659946#3"/>
    </vehicle>
    <vehicle id="30" depart="30.00">
        <route edges="954659946#3 -15436711#4 -15436711#3 -15436711#2 -15436711#1 -15436711#0 150433214#1 150433214#2 150433214#3 650908434#0 650908434#2 650908432 650908433 157351476#0 157351461 650908437#1 650908437#1-AddedOffRampEdge 157351487#1 157351487#2-AddedOnRampEdge 157351487#2 157351443#0 157351443#1 157351443#3 1124432697 1124432698#0 1124432698#1 1124432696 505947962#0 505947962#2 505947965#0 505947965#1 505947965#2 505947964#1 423439067#0 423439069#0 423439069#2 274631977#1 274631977#2 274631977#3 274631977#4 274631977#5 1099441034#0 1099441034#1 1099441034#2 -252392620#22 -252392620#21 -252392620#20 15425704#0 15425704#1 15425704#3 15425704#4 15425704#5 15425704#6"/>
    </vehicle>
    <vehicle id="31" depart="31.00">
        <route edges="15371859#7 15371859#8 15371859#10 15371859#11 1099441034#2 1099441034#3 1099441034#5 1099441034#6 1099441034#7 1099441034#8 1099441034#9 1099441034#10 1099441034#11 1099441034#12 1099441034#13 1099441034#14 1099441034#15 1099441034#16 -15366145#11 -15366145#10 -15366145#9 -15366145#7 -15366145#6 15437786#5 15437786#6 15437786#7"/>
    </vehicle>
    <vehicle id="33" depart="33.00">
        <route edges="-15450760#3 -195573252#3 15431398#4 -103706237#0 692519743#1 692519743#3 -692519745#5 -692519745#4 -692519745#3 -692519745#2 -692519745#1 -692519745#0 -1099441034#16 -1099441034#15 -1099441034#14 -1099441034#13 -1099441034#12 -1099441034#11 -1099441034#10 -1099441034#9 -1099441034#8 -1099441034#7 -1099441034#6 -1099441034#5 -1099441034#3 -1099441034#2 -1099441034#1 -1099441034#0 -274631977#5 -274631977#4 -274631977#3 -274631977#2 -274631977#1 -274631977#0 -423439069#1 15433756#0 15433756#2 15433756#3 15433756#4 15433756#5 15433756#6 15433756#7 15433756#8 15433756#9 15433756#11 15433756#12 15433756#13 255726877 98244420#0-AddedOnRampEdge 98244420#0 98244420#1-AddedOnRampEdge 98244420#1 54030217#1 54030217#2-AddedOnRampEdge 54030217#2 650908439 103239369 650908431#0 650908431#1 650908435#0 650908435#1 981147945#0 954659946#1 954659946#3 911424964#0 -150433220#2"/>
    </vehicle>
    <vehicle id="34" depart="34.00">
        <route edges="-317789570#14 -317789570#13 -15448453#0 -1099441034#11 -1099441034#10 -1099441034#9 -1099441034#8 -1099441034#7 -1099441034#6 -1099441034#5 -1099441034#3 -252392620#22 -252392620#21"/>
    </vehicle>
    <vehicle id="35" depart="35.00">
        <route edges="-15447692#4 -15447692#3 -15447692#2 -258025173#13 -258025173#12 -258025173#11 -258025173#10 -258025173#9 -258025173#8 -258025173#6 -258025173#5 -258025173#4 -258025173#3 -258025173#2 -258025173#1 -258025173#0 -258025174#6 -258025174#5 -258025174#4 -258025174#2 -258025174#1 -258025174#0 -15417781#2 -15417781#1 15433756#11 15433756#12 15433756#13 255726877 98244420#0-AddedOnRampEdge 98244420#0 98244420#1-AddedOnRampEdge 98244420#1 54030217#1 54030217#2-AddedOnRampEdge 54030217#2 650908439 103239369 650908431#0 650908431#1"/>
    </vehicle>
    <vehicle id="36" depart="36.00">
        <route edges="317789570#4 317789570#6 317789570#7 317789570#8 317789570#9 317789570#10 317789570#11 317789570#12 317789570#13 317789570#14 317789570#15 317789570#16 317789570#18 317789570#20 317789570#21 317789570#22 317789570#23 -317789570#23"/>
    </vehicle>
    <vehicle id="37" depart="37.00">
        <route edges="15431398#4 -103706237#0 102926379#0 102926379#1 102926379#2 799552432 819581716 799552428#0 103705921#4 103705921#6 103705921#7"/>
    </vehicle>
    <vehicle id="38" depart="38.00">
        <route edges="536043800#0 536043800#2 -799552432 -102926379#2 -102926379#1 -102926379#0 692519743#1 692519743#3 -692519745#5 -692519745#4 -692519745#3 -692519745#2 -692519745#1 -692519745#0 -1099441034#16 -1099441034#15 -1099441034#14 -1099441034#13 -1099441034#12 -1099441034#11 -1099441034#10 -1099441034#9 -1099441034#8 -1099441034#7 -1099441034#6 -1099441034#5 -1099441034#3 -1099441034#2 -1099441034#1 -1099441034#0 -274631977#5 -274631977#4 -274631977#3 -274631977#2 -274631977#1 -274631977#0 -423439069#1 15433756#0 15433756#2 15433756#3 15433756#4 15433756#5 15433756#6 15433756#7 15433756#8 15433756#9 15433756#11 15433756#12 15433756#13 255726877 98244420#0-AddedOnRampEdge 98244420#0 98244420#1-AddedOnRampEdge 98244420#1 157351494 1351173220-AddedOnRampEdge 1351173220 15302507#0 15302507#1 157351487#2-AddedOnRampEdge 157351487#2 157351492#0 157351492#1 1351173222 1351175382"/>
    </vehicle>
    <vehicle id="39" depart="39.00">
        <route edges="-232246082#1 -232246082#0 -317789570#7 -317789570#6 -317789570#4 -317789570#3 -317789570#2 -317789570#1 423439084#1 423439084#2 423439084#3 423439084#4 15433756#0 15433756#2 15433756#3 -15456860#1 -15456860#0"/>
    </vehicle>
    <vehicle id="40" depart="40.00">
        <route edges="15377451#2 15433756#6 15433756#7 15433756#8 15433756#9 15417781#1 15417781#2 258025174#0 258025174#1 258025174#2 258025174#4 258025174#5 258025174#6 15371859#0 15358859#5 -252392620#11"/>
    </vehicle>
    <vehicle id="41" depart="41.00">
        <route edges="15403853#5 15403853#6 15403853#7 -597602577#1 -597602577#0 -597602578#1 -597602578#0 265141712#0 265141712#1 265141712#2 265141712#3 265141712#4 265141712#5 265141712#6 265141712#7 265141712#8 265141712#9 265141712#10 265141712#11 265141712#12 423464393#0 423464393#1 423464392#0 423464392#1 423464392#2 423464387#0"/>
    </vehicle>
    <vehicle id="42" depart="42.00">
        <route edges="103371705#1 150433213#0 150433213#1 1087486581 103239389 967465330#0 1351540896#1 964928447 287332857#2 272559856#1 272559855 272559854 1309111500 1309111499 1037974806 272559853#1 272559853#2 272559853#3 265141712#0 265141712#1 265141712#2 265141712#3 265141712#4 265141712#5 265141712#6 265141712#7 265141712#8 265141712#9 265141712#10 265141712#11 265141712#12 -598235000#8 -598235000#7 -598235000#6 -598235000#5 -598235000#4 -598235000#3 -598235000#2 -598235000#1 -598235000#0 692519745#0 692519745#1 692519745#2 692519745#3 692519745#4 692519745#5 692519744#0 692519744#1 692519744#3 692519744#4 103706237#0 103706237#1 -15450760#6 -15450760#5 -15450760#4 -15450760#3 -15450760#2 -15450760#1"/>
    </vehicle>
    <vehicle id="43" depart="43.00">
        <route edges="98244420#0-AddedOnRampEdge 98244420#0 98244420#1-AddedOnRampEdge 98244420#1 157351494 1351173220-AddedOnRampEdge 1351173220 15302507#0 15302507#1 157351487#2-AddedOnRampEdge 157351487#2 157351443#0 157351443#1 556850118#1 15417781#1 15417781#2 258025174#0 258025174#1 258025174#2 258025174#4 258025174#5 258025174#6 258025173#0 258025173#1 258025173#2 252392620#11 15358859#6 15358859#7 15358859#8 15358859#9 15358859#10"/>
    </vehicle>
    <vehicle id="44" depart="44.00">
        <route edges="-15403853#12 -15403853#11 -15403853#10 -15403853#9 -15403853#8 -597602577#1 -597602577#0 -597602578#1 -597602578#0 -258025173#16 -258025173#15 -258025173#14 -258025173#13 -258025173#12 -258025173#11 -258025173#10 256260034#1 256260034#2 -15358859#10 -15358859#9 -15358859#8 -15358859#7"/>
    </vehicle>
    <vehicle id="45" depart="45.00">
        <route edges="-15407823#17 -15407823#16 -15407823#15 -15407823#14 -15407823#13 265141712#5 265141712#6 265141712#7 265141712#8 265141712#9 265141712#10 265141712#11 265141712#12 -598235000#8 -598235000#7 -598235000#6 -598235000#5 -598235000#4 -598235000#3 -598235000#2 -598235000#1 -598235000#0 -15366145#11 -15366145#10 -15366145#9 15425701#0 15425701#1"/>
    </vehicle>
    <vehicle id="46" depart="46.00">
        <route edges="255726877 98244420#0-AddedOnRampEdge 98244420#0 98244420#1-AddedOnRampEdge 98244420#1 157351494 1351173220-AddedOnRampEdge 1351173220 15302507#0 15302507#1 157351487#2-AddedOnRampEdge 157351487#2 157351443#0 157351443#1 157351443#3 1124432697 1124432698#0 1124432698#1 1124432696 505947962#0 505947962#2 505947965#0 505947965#1 505947965#2 505947964#1 423439067#0 423439069#0 423439069#2 274631977#1 274631977#2 274631977#3 274631977#4 274631977#5 1099441034#0 1099441034#1 1099441034#2 1099441034#3"/>
    </vehicle>
    <vehicle id="47" depart="47.00">
        <route edges="-15366832#7 -15366832#6 15366832#6 15366832#7 15366832#8 15366832#9 15366832#10 274631977#1 274631977#2 274631977#3 274631977#4 274631977#5 1099441034#0 1099441034#1 1099441034#2 1099441034#3 1099441034#5 1099441034#6 1099441034#7 1099441034#8 1099441034#9 1099441034#10 1099441034#11 1099441034#12 1099441034#13 1099441034#14 1099441034#15 1099441034#16 692519745#0 692519745#1 692519745#2 692519745#3 692519745#4 692519745#5 692519744#0 692519744#1 692519744#3 692519744#4 102926379#0 102926379#1"/>
    </vehicle>
    <vehicle id="48" depart="48.00">
        <route edges="981147945#0 954659945#1 323658110#1 323658110#2 323658110#4 650908433 157351476#0 157351461 650908437#1 650908437#1-AddedOffRampEdge 157351487#1 157351487#2-AddedOnRampEdge 157351487#2 157351443#0 157351443#1 556850118#1 15417781#1 15417781#2 258025174#0 258025174#1 258025174#2 258025174#4 258025174#5 258025174#6 258025173#0 258025173#1 258025173#2 258025173#3 258025173#4 258025173#5 258025173#6 258025173#8 258025173#9 258025173#10 15366145#2"/>
    </vehicle>
    <vehicle id="49" depart="49.00">
        <route edges="799552430#0 -15450760#9 -15450760#8 -15450760#7 -103706237#1 -103706237#0 692519743#1 692519743#3 -692519745#5 -692519745#4 -317789570#20 -317789570#18 -317789570#16 -317789570#15 -317789570#14 -317789570#13 317789570#13"/>
    </vehicle>
    <vehicle id="50" depart="50.00">
        <route edges="-1099441034#12 1099441034#12 1099441034#13 1099441034#14 1099441034#15 1099441034#16 692519745#0 692519745#1 692519745#2 692519745#3 692519745#4 692519745#5 692519744#0 692519744#1 692519744#3 692519744#4 103706237#0 103706237#1 15450760#7"/>
    </vehicle>
    <vehicle id="51" depart="51.00">
        <route edges="15437786#1 15437786#2 256260034#6 256260034#7 256260034#8 256260034#9 -1099441034#13 -1099441034#12 -1099441034#11 -1099441034#10 -1099441034#9 -1099441034#8 -1099441034#7 -1099441034#6 -1099441034#5 -1099441034#3 -1099441034#2 -1099441034#1 -1099441034#0 -274631977#5 -274631977#4 -274631977#3 -274631977#2 -274631977#1 -15366832#10 -15366832#9 -15366832#8 -15366832#7 -15366832#6 -15366832#5 -15366832#3 -15366832#2 -15366832#1 -15366832#0 15366832#0 15366832#1 15366832#2 15366832#3 15366832#5"/>
    </vehicle>
    <vehicle id="52" depart="52.00">
        <route edges="-252392620#1 252392620#1 252392620#2 252392620#4 252392620#5 252392620#7 252392620#9 252392620#10 252392620#11 252392620#12 252392620#14 252392620#16 252392620#18 15425704#0 15425704#1 15425704#3 15425704#4 15425704#5 15425704#6 15425704#7 15425704#8"/>
    </vehicle>
    <vehicle id="53" depart="53.00">
        <route edges="-15407823#3 -15407823#2 -15407823#1 -15407823#0 252392620#16 252392620#18 252392620#20 252392620#21 252392620#22 -1099441034#2 -1099441034#1 -1099441034#0 -274631977#5 -274631977#4 -274631977#3 -274631977#2 -274631977#1 -274631977#0 -423439069#1 505947963#0 -505947964#1 309161811#0 309161811#2 1124432700#0 1124432700#1 1124432700#2"/>
    </vehicle>
    <vehicle id="54" depart="54.00">
        <route edges="1238718194#2 1238718194#3 1238718197#1 1238718197#2 1238718197#3 255726874#0 255726874#2 1057554966 1124432700#0 1124432700#1 1124432700#2 1124432700#3 1124432699 274631976#0 274631976#2 556850118#1 15433756#11 15433756#12 15433756#13 157351495#0 157351495#1 157351495#2 157351495#3 157351495#4 1351175383 1351173221#0 1351173221#1-AddedOnRampEdge 1351173221#1 29010154 272559344#0 272559344#1 272559344#2 272559344#3 911424439#0 964928449 256261564#1 666576415"/>
    </vehicle>
    <vehicle id="55" depart="55.00">
        <route edges="317789570#4 -1354012100#2 -1354012100#1 -1354012100#0 1099441034#2 -252392620#22 -252392620#21 -252392620#20 -252392620#18 -252392620#16 -252392620#14 -252392620#12"/>
    </vehicle>
    <vehicle id="56" depart="56.00">
        <route edges="150433214#1 150433214#2 150433214#3 650908434#0 650908434#2 650908432 650908433 157351476#0 157351461 650908437#1 650908437#1-AddedOffRampEdge 157351487#1 157351487#2-AddedOnRampEdge 157351487#2 157351443#0 157351443#1 157351443#3 1124432697 1124432698#0 1124432698#1 1124432696 1124432695 255726873#0 255726873#2 1238718193#0 1238718193#1 1238718193#2 1238718196 323658522#1 323658522#2 323658522#4 323658522#5 317789570#1 317789570#2 317789570#3 317789570#4 317789570#6 317789570#7 317789570#8 317789570#9 317789570#10 15434043#3 15434043#4 15434043#5 15434043#6 -15434043#6 -15434043#5"/>
    </vehicle>
    <vehicle id="57" depart="57.00">
        <route edges="505947965#0 505947965#1 505947965#2 505947964#1 423439067#0 423439069#0 423439069#2 274631977#1 274631977#2 274631977#3 274631977#4 274631977#5 1099441034#0 1099441034#1 1099441034#2 1099441034#3 1099441034#5 1099441034#6 1099441034#7 1099441034#8 1099441034#9 1099441034#10 1099441034#11 1099441034#12 1099441034#13 1099441034#14 1099441034#15 1099441034#16 598235000#0 598235000#1 598235000#2 598235000#3 15421180#13 15421180#14 15421180#15 317789570#25 317789570#26 317789570#27"/>
    </vehicle>
    <vehicle id="58" depart="58.00">
        <route edges="-258025174#4 -258025174#2 -258025174#1 -258025174#0 -15417781#2 -15417781#1 15417781#1 15417781#2 258025174#0 258025174#1 258025174#2 258025174#4 258025174#5 258025174#6 258025173#0 258025173#1 258025173#2 252392620#11 252392620#12 252392620#14 252392620#16 252392620#18 15425704#0 15425704#1 15425704#3 15425704#4 15425704#5"/>
    </vehicle>
    <vehicle id="59" depart="59.00">
        <route edges="15412567#13 265141712#4 265141712#5 265141712#6 265141712#7 265141712#8 265141712#9 -15425701#7 -15425701#6 -15425701#5 -15425701#4 -15425701#3 -15425701#2 -15425701#1"/>
    </vehicle>
    <vehicle id="60" depart="60.00">
        <route edges="195573251#2 195573251#4 15431398#0 15431398#1 15431398#2 15431398#3 15431398#4 -103706237#0 692519743#1 692519743#3 -692519745#5 -692519745#4 -692519745#3 -692519745#2 -692519745#1 -692519745#0 -1099441034#16 -1099441034#15 -1099441034#14 -1099441034#13 -1099441034#12 -1099441034#11 -1099441034#10 -1099441034#9 -1099441034#8 -1099441034#7 -1099441034#6 -1099441034#5 -1099441034#3 -1099441034#2 -1099441034#1 -1099441034#0 -274631977#5 -274631977#4 -274631977#3 -274631977#2 -274631977#1 -274631977#0 -423439069#1 15433756#0 15433756#2 15449639#0 15449639#1 15366832#9"/>
    </vehicle>
    <vehicle id="61" depart="61.00">
        <route edges="252392620#11 252392620#12 15412567#0 15412567#1 15412567#2 15412567#3 15412567#4 15412567#5 15412567#6 15412567#7 15366145#4"/>
    </vehicle>
    <vehicle id="62" depart="62.00">
        <route edges="-102926379#0 692519743#1 692519743#3 -692519745#5 -692519745#4 -317789570#20 -317789570#18 -317789570#16 -317789570#15 -317789570#14 -317789570#13 -317789570#12 -317789570#11 -317789570#10 -317789570#9"/>
    </vehicle>
    <vehicle id="63" depart="63.00">
        <route edges="-1099441034#9 -1099441034#8 -1099441034#7 -1099441034#6 -1099441034#5 -1099441034#3 -252392620#22 -252392620#21 -252392620#20 -252392620#18 -252392620#16 -252392620#14 -252392620#12 -252392620#11 258025173#3 258025173#4 258025173#5 258025173#6 258025173#8 258025173#9 258025173#10 258025173#11 258025173#12 258025173#13 258025173#14 258025173#15 258025173#16 597602578#0 597602578#1 597602577#0 123419564#3 123419558 597602576#2 597602576#3"/>
    </vehicle>
    <vehicle id="64" depart="64.00">